java/SFINA/configuration_files/experiment-LineRemovalRandomCase30/output/time_12/iteration_1/flow/links.txt
id,current,real_power_from,reactive_power_from,real_power_to,reactive_power_to,resistance,reactance,susceptance,rateA,rateB,rateC,ratio,angle,angmin,angmax
1,0.0,12.38692595237919,-5.572302124412509,-12.352922036550748,2.674313871897642,0.02,0.06,0.03,130.0,130.0,130.0,0.0,0.0,-360.0,360.0
2,0.0,0.043344575419220294,-0.5314480618094833,-0.04323386558370913,-1.466308253554942,0.05,0.19,0.02,130.0,130.0,130.0,0.0,0.0,-360.0,360.0
3,0.0,-15.845966200178237,5.352404364116194,16.02083481179168,-6.8553074874597995,0.06,0.17,0.02,65.0,65.0,65.0,0.0,0.0,-360.0,360.0
4,0.0,-2.2367661344162024,0.32630825355520543,2.2372780275725463,-0.3242606809298304,0.01,0.04,0.0,130.0,130.0,130.0,0.0,0.0,-360.0,360.0
5,0.0,22.27890026920755,9.288698273497923,-21.97779691452339,-10.02341053991266,0.05,0.2,0.02,130.0,130.0,130.0,0.0,0.0,-360.0,360.0
6,0.0,14.680079539841945,11.725015398019474,-14.453621088536424,-12.983572643929916,0.06,0.18,0.02,65.0,65.0,65.0,0.0,0.0,-360.0,360.0
7,0.0,24.970666882367407,10.75940471110305,-24.89370862332712,-10.451571674941915,0.01,0.04,0.0,90.0,90.0,90.0,0.0,0.0,-360.0,360.0
8,0.0,21.97779691452345,10.201844420091504,-21.66000000000001,-10.354999999999905,0.05,0.12,0.01,70.0,70.0,70.0,0.0,0.0,-360.0,360.0
9,0.0,3.6329614195782884,2.085419493935517,-3.626554174549411,-2.986739282929174,0.03,0.08,0.01,130.0,130.0,130.0,0.0,0.0,-360.0,360.0
10,0.0,21.687522380856745,22.94984804078912,-21.581220056755924,-22.52463874438585,0.01,0.04,0.0,32.0,32.0,32.0,0.0,0.0,-360.0,360.0
11,0.0,0.6572693681390733,-4.433206289428734,-0.6572693681390733,4.478176657410734,0.0,0.21,0.0,65.0,65.0,65.0,0.0,0.0,-360.0,360.0
12,0.0,0.3755824960794698,-2.5332607368163576,-0.3755824960794698,2.572418608256465,0.0,0.56,0.0,32.0,32.0,32.0,0.0,0.0,-360.0,360.0
13,0.0,0.0,0.0,0.0,0.0,0.0,0.21,0.0,65.0,65.0,65.0,0.0,0.0,-360.0,360.0
14,0.0,0.6572693681390702,-4.478176657410473,-0.6572693681390702,4.501732564448661,0.0,0.11,0.0,65.0,65.0,65.0,0.0,0.0,-360.0,360.0
15,0.0,-25.478112839364176,5.659568168389202,25.478112839364176,-3.8856374952720913,0.0,0.26,0.0,65.0,65.0,65.0,0.0,0.0,-360.0,360.0
16,0.0,-37.000000000000014,-8.412400218850639,37.000000000000014,10.482846312383307,0.0,0.14,0.0,65.0,65.0,65.0,0.0,0.0,-360.0,360.0
17,0.0,2.550769643704055,2.2140911993684105,-2.5367072968520112,-2.183622781188984,0.12,0.26,0.0,32.0,32.0,32.0,0.0,0.0,-360.0,360.0
18,0.0,-1.6688824830679663,2.95894651475415,1.6771803630034887,-2.9435361663024655,0.07,0.13,0.0,32.0,32.0,32.0,0.0,0.0,-360.0,360.0
19,0.0,7.076734344916842,-0.2716367220612359,-7.030033603142797,0.3754161482257838,0.09,0.2,0.0,32.0,32.0,32.0,0.0,0.0,-360.0,360.0
20,0.0,-3.3532927031480195,0.6636227811889669,3.3801825804075833,-0.6391774382257274,0.22,0.2,0.0,16.0,16.0,16.0,0.0,0.0,-360.0,360.0
21,0.0,-3.499999999999934,-1.8000000000000362,3.513228458695339,1.8314175894016231,0.08,0.19,0.0,16.0,16.0,16.0,0.0,0.0,-360.0,360.0
22,0.0,3.0514543770393026,0.877908754078669,-3.039999999999949,-0.8549999999999617,0.11,0.22,0.0,16.0,16.0,16.0,0.0,0.0,-360.0,360.0
23,0.0,11.807849598057492,4.333981129309407,-11.701842001108755,-4.104298002587135,0.06,0.13,0.0,16.0,16.0,16.0,0.0,0.0,-360.0,360.0
24,0.0,2.2018420011086954,0.7042980025869784,-2.199999999999966,-0.6999999999999419,0.03,0.07,0.0,32.0,32.0,32.0,0.0,0.0,-360.0,360.0
25,0.0,5.915586873348007,4.6247769164974315,-5.863221813294653,-4.502591776372941,0.09,0.21,0.0,32.0,32.0,32.0,0.0,0.0,-360.0,360.0
26,0.0,12.58111772934874,7.812455644477942,-12.513228458695119,-7.631417589401618,0.03,0.08,0.0,32.0,32.0,32.0,0.0,0.0,-360.0,360.0
27,0.0,-1.3706307126648978,-6.022776965524964,1.382305093891101,6.050017188386106,0.03,0.07,0.0,32.0,32.0,32.0,0.0,0.0,-360.0,360.0
28,0.0,-4.477148135781485,-8.974151172704907,4.5499928264972125,9.13024693852432,0.07,0.15,0.0,32.0,32.0,32.0,0.0,0.0,-360.0,360.0
29,0.0,-16.624999999999552,-10.639999999998958,16.664258411125722,10.718516822251289,0.01,0.02,0.0,32.0,32.0,32.0,0.0,0.0,-360.0,360.0
30,0.0,-15.898817320450501,0.3298048504492463,16.15999999999999,0.19256050864973617,0.1,0.2,0.0,16.0,16.0,16.0,0.0,0.0,-360.0,360.0
31,0.0,0.37574876237661303,9.563937684392428,-0.2658166529805706,-9.399039520298363,0.12,0.18,0.0,16.0,16.0,16.0,0.0,0.0,-360.0,360.0
32,0.0,16.068299775994834,-3.3691688991368847,-15.717895752204045,4.096931102394679,0.13,0.27,0.0,16.0,16.0,16.0,0.0,0.0,-360.0,360.0
33,0.0,-7.999183347019439,3.072643390799584,8.143742257074948,-2.8215673891242266,0.19,0.33,0.0,16.0,16.0,16.0,0.0,0.0,-360.0,360.0
34,0.0,3.3669783465648506,2.248807086778568,-3.324999999999984,-2.184999999999971,0.25,0.38,0.0,16.0,16.0,16.0,0.0,0.0,-360.0,360.0
35,0.0,-11.510720603639813,0.5727603023459438,11.660371950286669,-0.2870622769292218,0.11,0.21,0.0,16.0,16.0,16.0,0.0,0.0,-360.0,360.0
36,0.0,-15.249628049713301,-6.382662243191323,15.249628049713301,7.54029080766645,0.0,0.4,0.0,65.0,65.0,65.0,0.0,0.0,-360.0,360.0
37,0.0,13.791981562427088,4.300619021350164,-13.332810587779809,-3.424019887932628,0.22,0.42,0.0,16.0,16.0,16.0,0.0,0.0,-360.0,360.0
38,0.0,7.122394950487271,1.6745629326654834,-6.951090403779483,-1.3533669075883799,0.32,0.6,0.0,16.0,16.0,16.0,0.0,0.0,-360.0,360.0
39,0.0,10.932810391600777,2.524020078147906,-10.599999676446798,-1.8999999872341946,0.24,0.45,0.0,16.0,16.0,16.0,0.0,0.0,-360.0,360.0
40,0.0,-6.9187799432440755,-5.975361255614644,6.966936782194436,4.27615993344999,0.06,0.2,0.02,32.0,32.0,32.0,0.0,0.0,-360.0,360.0
41,0.0,-8.266753156539004,-2.9998083706140264,8.282691267518848,2.1065023097415034,0.02,0.06,0.01,32.0,32.0,32.0,0.0,0.0,-360.0,360.0
